Circuit: * /Users/mac/Desktop/ITU/coursework/6Tcell_working.asc

Limiting rise time of source v5 to 8e-10
Limiting fall time of source v5 to 8e-10
Limiting rise time of source v6 to 1e-09
Limiting fall time of source v6 to 1e-09
Limiting rise time of source v§wr to 8e-10
Limiting fall time of source v§wr to 8e-10
Limiting rise time of source v4 to 6e-10
Limiting fall time of source v4 to 6e-10
Limiting rise time of source v3 to 4e-09
Limiting fall time of source v3 to 4e-09
Limiting rise time of source v2 to 4e-09
Limiting fall time of source v2 to 4e-09
WARNING: Node N006 is floating.
WARNING: Node N007 is floating.
WARNING: Node N008 is floating.
WARNING: Node N005 is floating.
WARNING: Node N002 is floating.
WARNING: Node N003 is floating.

WARNING: Less than two connections to node BLOUT.  This node is used by M12.
WARNING: Less than two connections to node BLBOUT.  This node is used by M13.
Instance "m13": Length shorter than recommended for a level 1 MOSFET.
Instance "m13": Width narrower than recommended for a level 1 MOSFET.
Instance "m12": Length shorter than recommended for a level 1 MOSFET.
Instance "m12": Width narrower than recommended for a level 1 MOSFET.
Instance "m11": Length shorter than recommended for a level 1 MOSFET.
Instance "m11": Width narrower than recommended for a level 1 MOSFET.
Instance "m9": Length shorter than recommended for a level 1 MOSFET.
Instance "m9": Width narrower than recommended for a level 1 MOSFET.
Instance "m10": Length shorter than recommended for a level 1 MOSFET.
Instance "m10": Width narrower than recommended for a level 1 MOSFET.
Instance "m4": Length shorter than recommended for a level 1 MOSFET.
Instance "m4": Width narrower than recommended for a level 1 MOSFET.
Instance "m1": Length shorter than recommended for a level 1 MOSFET.
Instance "m1": Width narrower than recommended for a level 1 MOSFET.
Instance "m8": Length shorter than recommended for a level 1 MOSFET.
Instance "m8": Width narrower than recommended for a level 1 MOSFET.
Instance "m7": Length shorter than recommended for a level 1 MOSFET.
Instance "m7": Width narrower than recommended for a level 1 MOSFET.
Instance "m6": Length shorter than recommended for a level 1 MOSFET.
Instance "m6": Width narrower than recommended for a level 1 MOSFET.
Instance "m5": Length shorter than recommended for a level 1 MOSFET.
Instance "m5": Width narrower than recommended for a level 1 MOSFET.
Instance "m2": Length shorter than recommended for a level 1 MOSFET.
Instance "m2": Width narrower than recommended for a level 1 MOSFET.
Instance "m3": Length shorter than recommended for a level 1 MOSFET.
Instance "m3": Width narrower than recommended for a level 1 MOSFET.
Direct Newton iteration for .op point succeeded.
Heightened Def Con from 1.14423e-08 to 1.14437e-08
Heightened Def Con from 5.14425e-08 ++++++++++++++to 5.14427e-08
Heightened Def Con from 5.14427e-08 +++to 5.14527e-08
Heightened Def Con from 9.14425e-08 ++++++++++++++to 9.14427e-08
Heightened Def Con from 9.14427e-08 +++to 9.14527e-08

Date: Wed Oct 10 20:21:28 2018
Total elapsed time: 0.855 seconds.

tnom = 27
temp = 27
method = modified trap
totiter = 26084
traniter = 26055
tranpoints = 10843
accept = 10351
rejected = 531
matrix size = 26
fillins = 2
solver = Normal
Matrix Compiler1: 1770 object code size  0.6/0.2/[0.1]
Matrix Compiler2: off

